FoamFile
{
    version         1.4;
    format          ascii;

    root            "/export/lime/data-04/sws02hs/OpenFOAM/sws02hs-1.4.1/run/shallowWater";
    case            "bucky4_30";
    instance        "constant";
    local           "";

    class           dictionary;
    object          gmtDict;
}

// How to plot
projection "X18c/18c";
projection2D XY;

FieldsToPlot
3
(
    [T filledContours 0 1 0.025 "$GMTU/colours/white_blue_red.cpt"]
    //[U vectors 20 19 "black"]
    [U vectors 20 7 "black"]
    [none mesh "black"]
);

// options
region "0/1e4/0/1.0001e4";
boundaryMarks "a1e3/a1e3";
separateLegend true;
//overlay true;
