/*--------------------------------*- C++ -*----------------------------------*\
| =========                 |                                                 |
| \\      /  F ield         | OpenFOAM: The Open Source CFD Toolbox           |
|  \\    /   O peration     | Version:  2.3.0                                 |
|   \\  /    A nd           | Web:      www.OpenFOAM.org                      |
|    \\/     M anipulation  |                                                 |
\*---------------------------------------------------------------------------*/
FoamFile
{
    version     2.0;
    format      ascii;
    class       volScalarField;
    location    "0";
    object      TGhost;
}
// * * * * * * * * * * * * * * * * * * * * * * * * * * * * * * * * * * * * * //

dimensions      [0 0 0 0 0 0 0];

internalField  uniform 0;

boundaryField
{
    "(top|top2|top1)"
    {
        type            zeroGradient;
    }
    "(inlet|inlet2|inlet1)"
    {
        type            zeroGradient;
        value           uniform 0;
    }
    "(outlet|outlet2|outlet1)"
    {
        type            zeroGradient;
        value           uniform 0;
    }
    "(ground|ground2|ground1)"
    {
        type            zeroGradient;
    }
}


// ************************************************************************* //
