/*--------------------------------*- C++ -*----------------------------------*\
| =========                 |                                                 |
| \\      /  F ield         | OpenFOAM: The Open Source CFD Toolbox           |
|  \\    /   O peration     | Version:  2.3.0                                 |
|   \\  /    A nd           | Web:      www.OpenFOAM.org                      |
|    \\/     M anipulation  |                                                 |
\*---------------------------------------------------------------------------*/
FoamFile
{
    version     2.0;
    format      ascii;
    class       surfaceVectorField;
    location    "0";
    object      UfGhost;
}
// * * * * * * * * * * * * * * * * * * * * * * * * * * * * * * * * * * * * * //

dimensions      [0 1 -1 0 0 0 0];

internalField  uniform (0 0 0);

boundaryField
{
    "(top|top1|top2)"
    {
        type            calculated;
        value           uniform (0 0 0);
    }
    "(inlet|inlet1|inlet2)"
    {
        type            calculated;
        value           uniform (0 0 0);
    }
    "(outlet|outlet1|outlet2)"
    {
        type            calculated;
        value           uniform (0 0 0);
    }
    "(ground|ground1|ground2)"
    {
        type            calculated;
        value           uniform (0 0 0);
    }
}


// ************************************************************************* //
