FoamFile
{
    version         1.4;
    format          ascii;

    root            "/export/lime/data-04/sws02hs/OpenFOAM/sws02hs-1.4.1/run/shallowWater";
    case            "bucky4_30";
    instance        "constant";
    local           "";

    class           dictionary;
    object          gmtDict;
}

// How to plot
projection "X18c/9c";
projection2D XZ;
plotBoundaryDots false;

FieldsToPlot
(
//    [T filledContours -1.025 1.025 0.05 "$GMTU/colours/red_white_blue.cpt"]
    [T filledContours -0.05 1.05 0.05 "$GMTU/colours/wh-bl-gr-ye-re.cpt"]
    [none mesh      "white"]
    [Uf vectors 0.1 25 "black"]
);

// options
region "-180/180/-90/90";
boundaryMarks "f30/f30";
separateLegend true;
annotate "minMax -60 -105";
//overlay true;
